LTspice 24.0.12 for Windows
Circuit: * E:\Github\STEVEannouncer\Spice\Draft3.asc
Start Time: Wed Jun 18 23:49:40 2025
solver = Normal
Maximum thread count: 32
tnom = 27
temp = 27
method = modified trap
Direct Newton iteration for .op point succeeded.
Semiconductor Device Operating Points:
                        --- Diodes ---
Name:      d1
Model:   1n4148
Id:      5.42e-04
Vd:      5.57e-01
Req:     8.36e+01
CAP:     2.45e-10


Total elapsed time: 0.026 seconds.

